100
structure Pb  FCC
Pb  14.85 9.9 14.85
Pb  14.85 9.9 19.8
Pb  14.85 14.85 9.9
Pb  14.85 14.85 14.85
Pb  14.85 14.85 19.8
Pb  14.85 14.85 24.75
Pb  14.85 19.8 9.9
Pb  14.85 19.8 14.85
Pb  14.85 19.8 19.8
Pb  14.85 19.8 24.75
Pb  14.85 24.75 14.85
Pb  14.85 24.75 19.8
Pb  19.8 9.9 14.85
Pb  19.8 9.9 19.8
Pb  19.8 14.85 9.9
Pb  19.8 14.85 14.85
Pb  19.8 14.85 19.8
Pb  19.8 14.85 24.75
Pb  19.8 19.8 9.9
Pb  19.8 19.8 14.85
Pb  19.8 19.8 19.8
Pb  19.8 19.8 24.75
Pb  19.8 24.75 14.85
Pb  19.8 24.75 19.8
Pb  24.75 14.85 14.85
Pb  24.75 14.85 19.8
Pb  24.75 19.8 14.85
Pb  24.75 19.8 19.8
Pb  14.85 12.375 12.375
Pb  14.85 12.375 17.325
Pb  14.85 12.375 22.275
Pb  14.85 17.325 12.375
Pb  14.85 17.325 17.325
Pb  14.85 17.325 22.275
Pb  14.85 22.275 12.375
Pb  14.85 22.275 17.325
Pb  14.85 22.275 22.275
Pb  19.8 12.375 12.375
Pb  19.8 12.375 17.325
Pb  19.8 12.375 22.275
Pb  19.8 17.325 12.375
Pb  19.8 17.325 17.325
Pb  19.8 17.325 22.275
Pb  19.8 22.275 12.375
Pb  19.8 22.275 17.325
Pb  19.8 22.275 22.275
Pb  24.75 12.375 17.325
Pb  24.75 17.325 12.375
Pb  24.75 17.325 17.325
Pb  24.75 17.325 22.275
Pb  24.75 22.275 17.325
Pb  12.375 14.85 12.375
Pb  12.375 14.85 17.325
Pb  12.375 14.85 22.275
Pb  12.375 19.8 12.375
Pb  12.375 19.8 17.325
Pb  12.375 19.8 22.275
Pb  17.325 9.9 12.375
Pb  17.325 9.9 17.325
Pb  17.325 9.9 22.275
Pb  17.325 14.85 12.375
Pb  17.325 14.85 17.325
Pb  17.325 14.85 22.275
Pb  17.325 19.8 12.375
Pb  17.325 19.8 17.325
Pb  17.325 19.8 22.275
Pb  17.325 24.75 12.375
Pb  17.325 24.75 17.325
Pb  22.275 9.9 17.325
Pb  22.275 14.85 12.375
Pb  22.275 14.85 17.325
Pb  22.275 14.85 22.275
Pb  22.275 19.8 12.375
Pb  22.275 19.8 17.325
Pb  22.275 19.8 22.275
Pb  22.275 24.75 17.325
Pb  12.375 12.375 14.85
Pb  12.375 12.375 19.8
Pb  12.375 17.325 14.85
Pb  12.375 17.325 19.8
Pb  12.375 22.275 14.85
Pb  12.375 22.275 19.8
Pb  17.325 12.375 9.9
Pb  17.325 12.375 14.85
Pb  17.325 12.375 19.8
Pb  17.325 17.325 9.9
Pb  17.325 17.325 14.85
Pb  17.325 17.325 19.8
Pb  17.325 17.325 24.75
Pb  17.325 22.275 9.9
Pb  17.325 22.275 14.85
Pb  17.325 22.275 19.8
Pb  22.275 12.375 14.85
Pb  22.275 12.375 19.8
Pb  22.275 17.325 9.9
Pb  22.275 17.325 14.85
Pb  22.275 17.325 19.8
Pb  22.275 17.325 24.75
Pb  22.275 22.275 14.85
Pb  22.275 22.275 19.8
